<?xml version="1.0" encoding="utf-8"?>
<!DOCTYPE population SYSTEM "http://www.matsim.org/files/dtd/population_v6.dtd">

<population>



<!-- ====================================================================== -->

	<person id="1">
		<attributes>
			<attribute name="age" class="java.lang.Integer" >60</attribute>
			<attribute name="household_id" class="java.lang.String" >1</attribute>
			<attribute name="sex" class="java.lang.String" >2</attribute>
			<attribute name="wc_var" class="java.lang.String" ></attribute>
		</attributes>
		<plan selected="yes">
			<activity type="Home" link="h1" x="412426.1572161403" y="4606034.580593396" end_time="05:18:29" >
			</activity>
			<leg mode="car">
			</leg>
			<activity type="othdiscr" link="3034" x="419467.9961850833" y="4562738.320234905" end_time="06:40:11" >
			</activity>
			<leg mode="car">
			</leg>
			<activity type="work" link="5084" x="409807.97432203754" y="4551223.816687219" end_time="15:09:08" >
			</activity>
			<leg mode="car">
			</leg>
			<activity type="othmaint" link="1536" x="408818.0482384258" y="4563767.980283855" end_time="15:29:24" >
			</activity>
			<leg mode="car">
			</leg>
			<activity type="Home" link="h1" x="412426.1572161403" y="4606034.580593396" >
			</activity>
		</plan>

	</person>

<!-- ====================================================================== -->

	<person id="10008">
		<attributes>
			<attribute name="age" class="java.lang.Integer" >60</attribute>
			<attribute name="household_id" class="java.lang.String" >2945</attribute>
			<attribute name="sex" class="java.lang.String" >2</attribute>
			<attribute name="wc_var" class="java.lang.String" ></attribute>
		</attributes>
		<plan selected="yes">
			<activity type="Home" link="h2945" x="415940.87395855365" y="4595931.269656834" >
			</activity>
		</plan>

	</person>

<!-- ====================================================================== -->

	<person id="10009">
		<attributes>
			<attribute name="age" class="java.lang.Integer" >86</attribute>
			<attribute name="household_id" class="java.lang.String" >2945</attribute>
			<attribute name="sex" class="java.lang.String" >1</attribute>
			<attribute name="wc_var" class="java.lang.String" ></attribute>
		</attributes>
		<plan selected="yes">
			<activity type="Home" link="h2945" x="415940.87395855365" y="4595931.269656834" >
			</activity>
		</plan>

	</person>

<!-- ====================================================================== -->

	<person id="10010">
		<attributes>
			<attribute name="age" class="java.lang.Integer" >34</attribute>
			<attribute name="household_id" class="java.lang.String" >2945</attribute>
			<attribute name="sex" class="java.lang.String" >2</attribute>
			<attribute name="wc_var" class="java.lang.String" ></attribute>
		</attributes>
		<plan selected="yes">
			<activity type="Home" link="h2945" x="415940.87395855365" y="4595931.269656834" >
			</activity>
		</plan>

	</person>

<!-- ====================================================================== -->

	<person id="10011">
		<attributes>
			<attribute name="age" class="java.lang.Integer" >16</attribute>
			<attribute name="household_id" class="java.lang.String" >2945</attribute>
			<attribute name="sex" class="java.lang.String" >1</attribute>
			<attribute name="wc_var" class="java.lang.String" ></attribute>
		</attributes>
		<plan selected="yes">
			<activity type="Home" link="h2945" x="415940.87395855365" y="4595931.269656834" >
			</activity>
		</plan>

	</person>

<!-- ====================================================================== -->

	<person id="10012">
		<attributes>
			<attribute name="age" class="java.lang.Integer" >10</attribute>
			<attribute name="household_id" class="java.lang.String" >2945</attribute>
			<attribute name="sex" class="java.lang.String" >1</attribute>
			<attribute name="wc_var" class="java.lang.String" ></attribute>
		</attributes>
		<plan selected="yes">
			<activity type="Home" link="h2945" x="415940.87395855365" y="4595931.269656834" end_time="13:33:24" >
			</activity>
			<leg mode="car">
			</leg>
			<activity type="othdiscr" link="241" x="415322.49713137007" y="4595625.78033221" end_time="16:23:01" >
			</activity>
			<leg mode="car">
			</leg>
			<activity type="escort" link="145" x="415137.7767550643" y="4595946.310210638" end_time="16:09:23" >
			</activity>
			<leg mode="car">
			</leg>
			<activity type="Home" link="h2945" x="415940.87395855365" y="4595931.269656834" >
			</activity>
		</plan>

	</person>

<!-- ====================================================================== -->

	<person id="10048">
		<attributes>
			<attribute name="age" class="java.lang.Integer" >52</attribute>
			<attribute name="household_id" class="java.lang.String" >2953</attribute>
			<attribute name="sex" class="java.lang.String" >2</attribute>
			<attribute name="wc_var" class="java.lang.String" ></attribute>
		</attributes>
		<plan selected="yes">
			<activity type="Home" link="h2953" x="415915.7972629347" y="4595849.24052175" >
			</activity>
		</plan>

	</person>

<!-- ====================================================================== -->

	<person id="10049">
		<attributes>
			<attribute name="age" class="java.lang.Integer" >52</attribute>
			<attribute name="household_id" class="java.lang.String" >2953</attribute>
			<attribute name="sex" class="java.lang.String" >1</attribute>
			<attribute name="wc_var" class="java.lang.String" ></attribute>
		</attributes>
		<plan selected="yes">
			<activity type="Home" link="h2953" x="415915.7972629347" y="4595849.24052175" end_time="07:07:21" >
			</activity>
			<leg mode="car">
			</leg>
			<activity type="work" link="5084" x="409807.97432203754" y="4551223.816687219" end_time="19:16:39" >
			</activity>
			<leg mode="car">
			</leg>
			<activity type="Home" link="h2953" x="415915.7972629347" y="4595849.24052175" >
			</activity>
		</plan>

	</person>

<!-- ====================================================================== -->

	<person id="10050">
		<attributes>
			<attribute name="age" class="java.lang.Integer" >28</attribute>
			<attribute name="household_id" class="java.lang.String" >2953</attribute>
			<attribute name="sex" class="java.lang.String" >2</attribute>
			<attribute name="wc_var" class="java.lang.String" ></attribute>
		</attributes>
		<plan selected="yes">
			<activity type="Home" link="h2953" x="415915.7972629347" y="4595849.24052175" end_time="08:26:31" >
			</activity>
			<leg mode="car">
			</leg>
			<activity type="escort" link="1077" x="416553.0681108061" y="4571546.330247101" end_time="08:05:16" >
			</activity>
			<leg mode="car">
			</leg>
			<activity type="work" link="2244" x="418704.93656739016" y="4566794.3500115825" end_time="19:38:22" >
			</activity>
			<leg mode="car">
			</leg>
			<activity type="Home" link="h2953" x="415915.7972629347" y="4595849.24052175" >
			</activity>
		</plan>

	</person>

<!-- ====================================================================== -->

	<person id="10051">
		<attributes>
			<attribute name="age" class="java.lang.Integer" >21</attribute>
			<attribute name="household_id" class="java.lang.String" >2953</attribute>
			<attribute name="sex" class="java.lang.String" >1</attribute>
			<attribute name="wc_var" class="java.lang.String" ></attribute>
		</attributes>
		<plan selected="yes">
			<activity type="Home" link="h2953" x="415915.7972629347" y="4595849.24052175" end_time="05:05:29" >
			</activity>
			<leg mode="car">
			</leg>
			<activity type="work" link="245" x="415254.00880710885" y="4595568.55006097" end_time="16:24:55" >
			</activity>
			<leg mode="car">
			</leg>
			<activity type="Home" link="h2953" x="415915.7972629347" y="4595849.24052175" >
			</activity>
		</plan>

	</person>

<!-- ====================================================================== -->

	<person id="10052">
		<attributes>
			<attribute name="age" class="java.lang.Integer" >14</attribute>
			<attribute name="household_id" class="java.lang.String" >2953</attribute>
			<attribute name="sex" class="java.lang.String" >2</attribute>
			<attribute name="wc_var" class="java.lang.String" ></attribute>
		</attributes>
		<plan selected="yes">
			<activity type="Home" link="h2953" x="415915.7972629347" y="4595849.24052175" end_time="08:40:00" >
			</activity>
			<leg mode="car">
			</leg>
			<activity type="escort" link="419" x="414465.50803439575" y="4595428.560654704" end_time="08:38:45" >
			</activity>
			<leg mode="car">
			</leg>
			<activity type="Home" link="h2953" x="415915.7972629347" y="4595849.24052175" end_time="08:33:40" >
			</activity>
			<leg mode="car">
			</leg>
			<activity type="school" link="533" x="415238.0400861661" y="4595090.969887568" end_time="19:08:47" >
			</activity>
			<leg mode="car">
			</leg>
			<activity type="Home" link="h2953" x="415915.7972629347" y="4595849.24052175" >
			</activity>
		</plan>

	</person>

<!-- ====================================================================== -->

	<person id="10053">
		<attributes>
			<attribute name="age" class="java.lang.Integer" >91</attribute>
			<attribute name="household_id" class="java.lang.String" >2953</attribute>
			<attribute name="sex" class="java.lang.String" >2</attribute>
			<attribute name="wc_var" class="java.lang.String" ></attribute>
		</attributes>
		<plan selected="yes">
			<activity type="Home" link="h2953" x="415915.7972629347" y="4595849.24052175" end_time="16:20:10" >
			</activity>
			<leg mode="we messed up">
			</leg>
			<activity type="shopping" link="179" x="415289.97779682657" y="4597317.519822814" end_time="18:59:58" >
			</activity>
			<leg mode="car">
			</leg>
			<activity type="Home" link="h2953" x="415915.7972629347" y="4595849.24052175" end_time="10:25:28" >
			</activity>
			<leg mode="car">
			</leg>
			<activity type="social" link="704" x="412784.9016150608" y="4589812.499986239" end_time="16:45:51" >
			</activity>
			<leg mode="car">
			</leg>
			<activity type="Home" link="h2953" x="415915.7972629347" y="4595849.24052175" >
			</activity>
		</plan>

	</person>

<!-- ====================================================================== -->

	<person id="1009">
		<attributes>
			<attribute name="age" class="java.lang.Integer" >43</attribute>
			<attribute name="household_id" class="java.lang.String" >193</attribute>
			<attribute name="sex" class="java.lang.String" >2</attribute>
			<attribute name="wc_var" class="java.lang.String" ></attribute>
		</attributes>
		<plan selected="yes">
			<activity type="Home" link="h193" x="414704.7072459645" y="4601300.0002151625" end_time="09:13:46" >
			</activity>
			<leg mode="car">
			</leg>
			<activity type="work" link="171" x="415380.7974826875" y="4598260.589845579" end_time="18:38:35" >
			</activity>
			<leg mode="car">
			</leg>
			<activity type="Home" link="h193" x="414704.7072459645" y="4601300.0002151625" >
			</activity>
		</plan>

	</person>

<!-- ====================================================================== -->

	<person id="10093">
		<attributes>
			<attribute name="age" class="java.lang.Integer" >65</attribute>
			<attribute name="household_id" class="java.lang.String" >2961</attribute>
			<attribute name="sex" class="java.lang.String" >2</attribute>
			<attribute name="wc_var" class="java.lang.String" ></attribute>
		</attributes>
		<plan selected="yes">
			<activity type="Home" link="h2961" x="415778.7434660322" y="4595549.049682479" >
			</activity>
		</plan>

	</person>

<!-- ====================================================================== -->

	<person id="10094">
		<attributes>
			<attribute name="age" class="java.lang.Integer" >45</attribute>
			<attribute name="household_id" class="java.lang.String" >2961</attribute>
			<attribute name="sex" class="java.lang.String" >2</attribute>
			<attribute name="wc_var" class="java.lang.String" ></attribute>
		</attributes>
		<plan selected="yes">
			<activity type="Home" link="h2961" x="415778.7434660322" y="4595549.049682479" end_time="12:47:16" >
			</activity>
			<leg mode="car">
			</leg>
			<activity type="shopping" link="524" x="415245.94122128666" y="4595246.99024437" end_time="21:27:56" >
			</activity>
			<leg mode="car">
			</leg>
			<activity type="Home" link="h2961" x="415778.7434660322" y="4595549.049682479" >
			</activity>
		</plan>

	</person>

<!-- ====================================================================== -->

	<person id="10095">
		<attributes>
			<attribute name="age" class="java.lang.Integer" >22</attribute>
			<attribute name="household_id" class="java.lang.String" >2961</attribute>
			<attribute name="sex" class="java.lang.String" >2</attribute>
			<attribute name="wc_var" class="java.lang.String" ></attribute>
		</attributes>
		<plan selected="yes">
			<activity type="Home" link="h2961" x="415778.7434660322" y="4595549.049682479" end_time="10:50:55" >
			</activity>
			<leg mode="car">
			</leg>
			<activity type="othmaint" link="418" x="414348.40344057756" y="4595175.590601778" end_time="12:43:45" >
			</activity>
			<leg mode="car">
			</leg>
			<activity type="shopping" link="725" x="412958.32710328005" y="4586233.959852214" end_time="14:14:40" >
			</activity>
			<leg mode="car">
			</leg>
			<activity type="shopping" link="616" x="415388.4777976823" y="4593474.900204987" end_time="18:24:32" >
			</activity>
			<leg mode="car">
			</leg>
			<activity type="eatout" link="597" x="415237.1181280012" y="4593980.480386162" end_time="22:18:16" >
			</activity>
			<leg mode="car">
			</leg>
			<activity type="Home" link="h2961" x="415778.7434660322" y="4595549.049682479" >
			</activity>
		</plan>

	</person>

<!-- ====================================================================== -->

	<person id="10096">
		<attributes>
			<attribute name="age" class="java.lang.Integer" >14</attribute>
			<attribute name="household_id" class="java.lang.String" >2961</attribute>
			<attribute name="sex" class="java.lang.String" >2</attribute>
			<attribute name="wc_var" class="java.lang.String" ></attribute>
		</attributes>
		<plan selected="yes">
			<activity type="Home" link="h2961" x="415778.7434660322" y="4595549.049682479" end_time="21:25:37" >
			</activity>
			<leg mode="car">
			</leg>
			<activity type="eatout" link="510" x="415034.01622584416" y="4593891.149901772" end_time="22:45:13" >
			</activity>
			<leg mode="car">
			</leg>
			<activity type="Home" link="h2961" x="415778.7434660322" y="4595549.049682479" end_time="07:23:00" >
			</activity>
			<leg mode="car">
			</leg>
			<activity type="escort" link="518" x="414284.8678268868" y="4593353.840256617" end_time="08:38:01" >
			</activity>
			<leg mode="car">
			</leg>
			<activity type="escort" link="599" x="415304.78103018424" y="4594077.100640843" end_time="19:01:48" >
			</activity>
			<leg mode="car">
			</leg>
			<activity type="Home" link="h2961" x="415778.7434660322" y="4595549.049682479" end_time="19:15:12" >
			</activity>
			<leg mode="car">
			</leg>
			<activity type="othmaint" link="230" x="415281.01894463785" y="4596086.670361457" end_time="21:47:30" >
			</activity>
			<leg mode="car">
			</leg>
			<activity type="Home" link="h2961" x="415778.7434660322" y="4595549.049682479" >
			</activity>
		</plan>

	</person>

<!-- ====================================================================== -->

	<person id="10097">
		<attributes>
			<attribute name="age" class="java.lang.Integer" >0</attribute>
			<attribute name="household_id" class="java.lang.String" >2961</attribute>
			<attribute name="sex" class="java.lang.String" >2</attribute>
			<attribute name="wc_var" class="java.lang.String" ></attribute>
		</attributes>
		<plan selected="yes">
			<activity type="Home" link="h2961" x="415778.7434660322" y="4595549.049682479" end_time="08:38:53" >
			</activity>
			<leg mode="walk">
			</leg>
			<activity type="school" link="552" x="415494.6406997755" y="4594601.91980513" end_time="10:03:48" >
			</activity>
			<leg mode="walk">
			</leg>
			<activity type="Home" link="h2961" x="415778.7434660322" y="4595549.049682479" >
			</activity>
		</plan>

	</person>

<!-- ====================================================================== -->

	<person id="10140">
		<attributes>
			<attribute name="age" class="java.lang.Integer" >66</attribute>
			<attribute name="household_id" class="java.lang.String" >2969</attribute>
			<attribute name="sex" class="java.lang.String" >1</attribute>
			<attribute name="wc_var" class="java.lang.String" ></attribute>
		</attributes>
		<plan selected="yes">
			<activity type="Home" link="h2969" x="415657.4617029307" y="4595938.419699226" end_time="10:38:25" >
			</activity>
			<leg mode="we messed up">
			</leg>
			<activity type="othmaint" link="83" x="415246.96405000216" y="4597780.58045485" end_time="16:42:50" >
			</activity>
			<leg mode="we messed up">
			</leg>
			<activity type="shopping" link="531" x="415420.68954804057" y="4595262.93978055" end_time="16:21:29" >
			</activity>
			<leg mode="pt">
			</leg>
			<activity type="Home" link="h2969" x="415657.4617029307" y="4595938.419699226" end_time="16:38:03" >
			</activity>
			<leg mode="car">
			</leg>
			<activity type="othmaint" link="242" x="415249.45081713254" y="4595597.619735992" end_time="17:19:31" >
			</activity>
			<leg mode="car">
			</leg>
			<activity type="Home" link="h2969" x="415657.4617029307" y="4595938.419699226" end_time="18:35:40" >
			</activity>
			<leg mode="we messed up">
			</leg>
			<activity type="othmaint" link="461" x="414165.1536405318" y="4593565.000101189" end_time="21:05:36" >
			</activity>
			<leg mode="we messed up">
			</leg>
			<activity type="Home" link="h2969" x="415657.4617029307" y="4595938.419699226" >
			</activity>
		</plan>

	</person>

<!-- ====================================================================== -->

	<person id="10141">
		<attributes>
			<attribute name="age" class="java.lang.Integer" >59</attribute>
			<attribute name="household_id" class="java.lang.String" >2969</attribute>
			<attribute name="sex" class="java.lang.String" >2</attribute>
			<attribute name="wc_var" class="java.lang.String" ></attribute>
		</attributes>
		<plan selected="yes">
			<activity type="Home" link="h2969" x="415657.4617029307" y="4595938.419699226" end_time="09:40:12" >
			</activity>
			<leg mode="pt">
			</leg>
			<activity type="othdiscr" link="526" x="415316.27135654964" y="4595219.090357674" end_time="11:57:12" >
			</activity>
			<leg mode="pt">
			</leg>
			<activity type="shopping" link="643" x="413989.0999765056" y="4592998.220276492" end_time="11:22:48" >
			</activity>
			<leg mode="pt">
			</leg>
			<activity type="Home" link="h2969" x="415657.4617029307" y="4595938.419699226" >
			</activity>
		</plan>

	</person>

<!-- ====================================================================== -->

	<person id="10142">
		<attributes>
			<attribute name="age" class="java.lang.Integer" >38</attribute>
			<attribute name="household_id" class="java.lang.String" >2969</attribute>
			<attribute name="sex" class="java.lang.String" >2</attribute>
			<attribute name="wc_var" class="java.lang.String" ></attribute>
		</attributes>
		<plan selected="yes">
			<activity type="Home" link="h2969" x="415657.4617029307" y="4595938.419699226" >
			</activity>
		</plan>

	</person>

<!-- ====================================================================== -->

	<person id="10143">
		<attributes>
			<attribute name="age" class="java.lang.Integer" >18</attribute>
			<attribute name="household_id" class="java.lang.String" >2969</attribute>
			<attribute name="sex" class="java.lang.String" >1</attribute>
			<attribute name="wc_var" class="java.lang.String" ></attribute>
		</attributes>
		<plan selected="yes">
			<activity type="Home" link="h2969" x="415657.4617029307" y="4595938.419699226" >
			</activity>
		</plan>

	</person>

<!-- ====================================================================== -->

	<person id="10144">
		<attributes>
			<attribute name="age" class="java.lang.Integer" >14</attribute>
			<attribute name="household_id" class="java.lang.String" >2969</attribute>
			<attribute name="sex" class="java.lang.String" >2</attribute>
			<attribute name="wc_var" class="java.lang.String" ></attribute>
		</attributes>
		<plan selected="yes">
			<activity type="Home" link="h2969" x="415657.4617029307" y="4595938.419699226" >
			</activity>
		</plan>

	</person>

<!-- ====================================================================== -->

	<person id="10145">
		<attributes>
			<attribute name="age" class="java.lang.Integer" >11</attribute>
			<attribute name="household_id" class="java.lang.String" >2969</attribute>
			<attribute name="sex" class="java.lang.String" >2</attribute>
			<attribute name="wc_var" class="java.lang.String" ></attribute>
		</attributes>
		<plan selected="yes">
			<activity type="Home" link="h2969" x="415657.4617029307" y="4595938.419699226" >
			</activity>
		</plan>

	</person>

<!-- ====================================================================== -->

	<person id="10193">
		<attributes>
			<attribute name="age" class="java.lang.Integer" >61</attribute>
			<attribute name="household_id" class="java.lang.String" >2977</attribute>
			<attribute name="sex" class="java.lang.String" >2</attribute>
			<attribute name="wc_var" class="java.lang.String" ></attribute>
		</attributes>
		<plan selected="yes">
			<activity type="Home" link="h2977" x="415913.02695675264" y="4595504.150193708" end_time="08:36:24" >
			</activity>
			<leg mode="car">
			</leg>
			<activity type="shopping" link="643" x="413989.0999765056" y="4592998.220276492" end_time="09:53:54" >
			</activity>
			<leg mode="car">
			</leg>
			<activity type="shopping" link="640" x="414235.25760975893" y="4593160.650271412" end_time="12:49:33" >
			</activity>
			<leg mode="car">
			</leg>
			<activity type="Home" link="h2977" x="415913.02695675264" y="4595504.150193708" >
			</activity>
		</plan>

	</person>

<!-- ====================================================================== -->

	<person id="10194">
		<attributes>
			<attribute name="age" class="java.lang.Integer" >65</attribute>
			<attribute name="household_id" class="java.lang.String" >2977</attribute>
			<attribute name="sex" class="java.lang.String" >1</attribute>
			<attribute name="wc_var" class="java.lang.String" ></attribute>
		</attributes>
		<plan selected="yes">
			<activity type="Home" link="h2977" x="415913.02695675264" y="4595504.150193708" end_time="15:52:47" >
			</activity>
			<leg mode="car">
			</leg>
			<activity type="escort" link="284" x="416760.3603221086" y="4597223.29810744" end_time="16:46:54" >
			</activity>
			<leg mode="car">
			</leg>
			<activity type="Home" link="h2977" x="415913.02695675264" y="4595504.150193708" end_time="18:52:11" >
			</activity>
			<leg mode="car">
			</leg>
			<activity type="escort" link="420" x="414470.5128588094" y="4595164.940447494" end_time="18:36:41" >
			</activity>
			<leg mode="car">
			</leg>
			<activity type="Home" link="h2977" x="415913.02695675264" y="4595504.150193708" >
			</activity>
		</plan>

	</person>

<!-- ====================================================================== -->

	<person id="10195">
		<attributes>
			<attribute name="age" class="java.lang.Integer" >37</attribute>
			<attribute name="household_id" class="java.lang.String" >2977</attribute>
			<attribute name="sex" class="java.lang.String" >2</attribute>
			<attribute name="wc_var" class="java.lang.String" ></attribute>
		</attributes>
		<plan selected="yes">
			<activity type="Home" link="h2977" x="415913.02695675264" y="4595504.150193708" end_time="08:50:19" >
			</activity>
			<leg mode="car">
			</leg>
			<activity type="escort" link="527" x="415380.1920533015" y="4595265.260060925" end_time="08:51:47" >
			</activity>
			<leg mode="car">
			</leg>
			<activity type="Home" link="h2977" x="415913.02695675264" y="4595504.150193708" >
			</activity>
		</plan>

	</person>

<!-- ====================================================================== -->

	<person id="10196">
		<attributes>
			<attribute name="age" class="java.lang.Integer" >8</attribute>
			<attribute name="household_id" class="java.lang.String" >2977</attribute>
			<attribute name="sex" class="java.lang.String" >2</attribute>
			<attribute name="wc_var" class="java.lang.String" ></attribute>
		</attributes>
		<plan selected="yes">
			<activity type="Home" link="h2977" x="415913.02695675264" y="4595504.150193708" end_time="08:25:36" >
			</activity>
			<leg mode="car">
			</leg>
			<activity type="school" link="187" x="415724.4097142667" y="4597357.70989055" end_time="15:50:51" >
			</activity>
			<leg mode="car">
			</leg>
			<activity type="Home" link="h2977" x="415913.02695675264" y="4595504.150193708" >
			</activity>
		</plan>

	</person>

<!-- ====================================================================== -->

	<person id="10197">
		<attributes>
			<attribute name="age" class="java.lang.Integer" >4</attribute>
			<attribute name="household_id" class="java.lang.String" >2977</attribute>
			<attribute name="sex" class="java.lang.String" >2</attribute>
			<attribute name="wc_var" class="java.lang.String" ></attribute>
		</attributes>
		<plan selected="yes">
			<activity type="Home" link="h2977" x="415913.02695675264" y="4595504.150193708" end_time="07:35:06" >
			</activity>
			<leg mode="walk">
			</leg>
			<activity type="escort" link="192" x="415286.7691795794" y="4596832.709874808" end_time="07:41:23" >
			</activity>
			<leg mode="car">
			</leg>
			<activity type="school" link="252" x="415253.50050633366" y="4595463.459732151" end_time="18:00:57" >
			</activity>
			<leg mode="car">
			</leg>
			<activity type="othdiscr" link="340" x="414118.9131942466" y="4595878.009669085" end_time="18:02:53" >
			</activity>
			<leg mode="car">
			</leg>
			<activity type="othdiscr" link="518" x="414284.8678268868" y="4593353.840256617" end_time="18:07:32" >
			</activity>
			<leg mode="car">
			</leg>
			<activity type="othmaint" link="245" x="415254.00880710885" y="4595568.55006097" end_time="18:05:47" >
			</activity>
			<leg mode="car">
			</leg>
			<activity type="Home" link="h2977" x="415913.02695675264" y="4595504.150193708" >
			</activity>
		</plan>

	</person>

<!-- ====================================================================== -->

	<person id="10198">
		<attributes>
			<attribute name="age" class="java.lang.Integer" >2</attribute>
			<attribute name="household_id" class="java.lang.String" >2977</attribute>
			<attribute name="sex" class="java.lang.String" >2</attribute>
			<attribute name="wc_var" class="java.lang.String" ></attribute>
		</attributes>
		<plan selected="yes">
			<activity type="Home" link="h2977" x="415913.02695675264" y="4595504.150193708" end_time="12:34:12" >
			</activity>
			<leg mode="walk">
			</leg>
			<activity type="school" link="540" x="415807.9488806237" y="4595123.491157996" end_time="21:58:04" >
			</activity>
			<leg mode="walk">
			</leg>
			<activity type="Home" link="h2977" x="415913.02695675264" y="4595504.150193708" >
			</activity>
		</plan>

	</person>

<!-- ====================================================================== -->

	<person id="10199">
		<attributes>
			<attribute name="age" class="java.lang.Integer" >1</attribute>
			<attribute name="household_id" class="java.lang.String" >2977</attribute>
			<attribute name="sex" class="java.lang.String" >2</attribute>
			<attribute name="wc_var" class="java.lang.String" ></attribute>
		</attributes>
		<plan selected="yes">
			<activity type="Home" link="h2977" x="415913.02695675264" y="4595504.150193708" >
			</activity>
		</plan>

	</person>

<!-- ====================================================================== -->

	<person id="10200">
		<attributes>
			<attribute name="age" class="java.lang.Integer" >37</attribute>
			<attribute name="household_id" class="java.lang.String" >2977</attribute>
			<attribute name="sex" class="java.lang.String" >1</attribute>
			<attribute name="wc_var" class="java.lang.String" ></attribute>
		</attributes>
		<plan selected="yes">
			<activity type="Home" link="h2977" x="415913.02695675264" y="4595504.150193708" end_time="13:03:04" >
			</activity>
			<leg mode="car">
			</leg>
			<activity type="shopping" link="3074" x="420657.44935062865" y="4563736.949601329" end_time="14:02:23" >
			</activity>
			<leg mode="car">
			</leg>
			<activity type="shopping" link="3704" x="418871.5615053931" y="4557899.630445825" end_time="14:17:49" >
			</activity>
			<leg mode="car">
			</leg>
			<activity type="othmaint" link="1592" x="411587.3876996188" y="4562478.861155313" end_time="14:51:50" >
			</activity>
			<leg mode="car">
			</leg>
			<activity type="eatout" link="879" x="408488.2440709048" y="4566660.150590086" end_time="14:22:47" >
			</activity>
			<leg mode="car">
			</leg>
			<activity type="Home" link="h2977" x="415913.02695675264" y="4595504.150193708" end_time="14:41:02" >
			</activity>
			<leg mode="car">
			</leg>
			<activity type="othmaint" link="538" x="415236.2129425157" y="4595007.910369071" end_time="17:16:19" >
			</activity>
			<leg mode="car">
			</leg>
			<activity type="Home" link="h2977" x="415913.02695675264" y="4595504.150193708" end_time="05:40:24" >
			</activity>
			<leg mode="car">
			</leg>
			<activity type="work" link="338" x="414159.9590666245" y="4595895.420330666" end_time="05:35:44" >
			</activity>
			<leg mode="car">
			</leg>
			<activity type="Home" link="h2977" x="415913.02695675264" y="4595504.150193708" end_time="08:12:56" >
			</activity>
			<leg mode="car">
			</leg>
			<activity type="escort" link="187" x="415724.4097142667" y="4597357.70989055" end_time="09:56:43" >
			</activity>
			<leg mode="car">
			</leg>
			<activity type="work" link="339" x="414093.1462683349" y="4595924.820017501" end_time="13:52:15" >
			</activity>
			<leg mode="car">
			</leg>