<?xml version='1.0' encoding='UTF-8'?>
<!DOCTYPE objectattributes SYSTEM "http://www.matsim.org/files/dtd/objectattributes_v1.dtd>"
<objectattributes>
  <object id="100050">
    <attribute name="homecoordx" class="java.lang.Double">552242.4371670516</attribute>
    <attribute name="homecoordy" class="java.lang.Double">4179781.552574165</attribute>
    <attribute name="housingtype" class="java.lang.String">House</attribute>
  </object>
  <object id="100065">
    <attribute name="homecoordx" class="java.lang.Double">552341.2333476698</attribute>
    <attribute name="homecoordy" class="java.lang.Double">4179792.958424625</attribute>
    <attribute name="housingtype" class="java.lang.String">House</attribute>
  </object>
  <object id="100255">
    <attribute name="homecoordx" class="java.lang.Double">548544.2770190494</attribute>
    <attribute name="homecoordy" class="java.lang.Double">4179739.9370489614</attribute>
    <attribute name="housingtype" class="java.lang.String">House</attribute>
  </object>
  <object id="100317">
    <attribute name="homecoordx" class="java.lang.Double">548451.3898047367</attribute>
    <attribute name="homecoordy" class="java.lang.Double">4179553.4637928978</attribute>
    <attribute name="housingtype" class="java.lang.String">House</attribute>
  </object>
  <object id="100326">
    <attribute name="homecoordx" class="java.lang.Double">548436.4776933794</attribute>
    <attribute name="homecoordy" class="java.lang.Double">4179636.679009819</attribute>
    <attribute name="housingtype" class="java.lang.String">House</attribute>
  </object>
  <object id="100363">
    <attribute name="homecoordx" class="java.lang.Double">548299.8508395144</attribute>
    <attribute name="homecoordy" class="java.lang.Double">4179699.203210203</attribute>
    <attribute name="housingtype" class="java.lang.String">House</attribute>
  </object>
  <object id="10038">
    <attribute name="homecoordx" class="java.lang.Double">548227.8067753541</attribute>
    <attribute name="homecoordy" class="java.lang.Double">4174317.459827736</attribute>
    <attribute name="housingtype" class="java.lang.String">House</attribute>
  </object>
  <object id="100381">
    <attribute name="homecoordx" class="java.lang.Double">548451.3898047367</attribute>
    <attribute name="homecoordy" class="java.lang.Double">4179553.4637928978</attribute>
    <attribute name="housingtype" class="java.lang.String">House</attribute>
  </object>
  <object id="1003972">
    <attribute name="homecoordx" class="java.lang.Double">594690.3993824981</attribute>
    <attribute name="homecoordy" class="java.lang.Double">4133266.59205884</attribute>
    <attribute name="housingtype" class="java.lang.String">House</attribute>
  </object>
  <object id="100404">
    <attribute name="homecoordx" class="java.lang.Double">548436.4776933794</attribute>
    <attribute name="homecoordy" class="java.lang.Double">4179636.679009819</attribute>
    <attribute name="housingtype" class="java.lang.String">House</attribute>
  </object>
  <object id="100516">
    <attribute name="homecoordx" class="java.lang.Double">546201.7684274677</attribute>
    <attribute name="homecoordy" class="java.lang.Double">4179618.052226027</attribute>
    <attribute name="housingtype" class="java.lang.String">House</attribute>
  </object>
  <object id="100618">
    <attribute name="homecoordx" class="java.lang.Double">546392.6848560415</attribute>
    <attribute name="homecoordy" class="java.lang.Double">4179629.7208382175</attribute>
    <attribute name="housingtype" class="java.lang.String">House</attribute>
  </object>
  <object id="1006734">
    <attribute name="homecoordx" class="java.lang.Double">593931.4205599709</attribute>
    <attribute name="homecoordy" class="java.lang.Double">4133667.2177308695</attribute>
    <attribute name="housingtype" class="java.lang.String">House</attribute>
  </object>
  <object id="10073">
    <attribute name="homecoordx" class="java.lang.Double">548156.5597097117</attribute>
    <attribute name="homecoordy" class="java.lang.Double">4174399.492067408</attribute>
    <attribute name="housingtype" class="java.lang.String">House</attribute>
  </object>
  <object id="100739">
    <attribute name="homecoordx" class="java.lang.Double">546108.5804974425</attribute>
    <attribute name="homecoordy" class="java.lang.Double">4179612.8942754106</attribute>
    <attribute name="housingtype" class="java.lang.String">House</attribute>
  </object>
  <object id="100769">
    <attribute name="homecoordx" class="java.lang.Double">546296.0136977494</attribute>
    <attribute name="homecoordy" class="java.lang.Double">4179623.858231322</attribute>
    <attribute name="housingtype" class="java.lang.String">House</attribute>
  </object>
  <object id="100779">
    <attribute name="homecoordx" class="java.lang.Double">546108.5804974425</attribute>
    <attribute name="homecoordy" class="java.lang.Double">4179612.8942754106</attribute>
    <attribute name="housingtype" class="java.lang.String">House</attribute>
  </object>
  <object id="100854">
    <attribute name="homecoordx" class="java.lang.Double">546392.6848560415</attribute>
    <attribute name="homecoordy" class="java.lang.Double">4179629.7208382175</attribute>
    <attribute name="housingtype" class="java.lang.String">House</attribute>
  </object>
  <object id="10089">
    <attribute name="homecoordx" class="java.lang.Double">548156.5597097117</attribute>
    <attribute name="homecoordy" class="java.lang.Double">4174399.492067408</attribute>
    <attribute name="housingtype" class="java.lang.String">House</attribute>
  </object>
  <object id="101134">
    <attribute name="homecoordx" class="java.lang.Double">550231.6938396128</attribute>
    <attribute name="homecoordy" class="java.lang.Double">4179742.688986242</attribute>
    <attribute name="housingtype" class="java.lang.String">House</attribute>
  </object>
  <object id="101199">
    <attribute name="homecoordx" class="java.lang.Double">550098.0882469993</attribute>
    <attribute name="homecoordy" class="java.lang.Double">4179731.604829081</attribute>
    <attribute name="housingtype" class="java.lang.String">House</attribute>
  </object>
  <object id="101226">
    <attribute name="homecoordx" class="java.lang.Double">550231.6938396128</attribute>
    <attribute name="homecoordy" class="java.lang.Double">4179742.688986242</attribute>
    <attribute name="housingtype" class="java.lang.String">House</attribute>
  </object>
  <object id="10123">
    <attribute name="homecoordx" class="java.lang.Double">548030.0761816488</attribute>
    <attribute name="homecoordy" class="java.lang.Double">4174090.781562477</attribute>
    <attribute name="housingtype" class="java.lang.String">House</attribute>
  </object>
  <object id="101305">
    <attribute name="homecoordx" class="java.lang.Double">547153.8170000049</attribute>
    <attribute name="homecoordy" class="java.lang.Double">4179674.074459496</attribute>
    <attribute name="housingtype" class="java.lang.String">House</attribute>
  </object>
  <object id="101327">
    <attribute name="homecoordx" class="java.lang.Double">547153.8170000049</attribute>
    <attribute name="homecoordy" class="java.lang.Double">4179674.074459496</attribute>
    <attribute name="housingtype" class="java.lang.String">House</attribute>
  </object>
  <object id="10159">
    <attribute name="homecoordx" class="java.lang.Double">548503.1914147019</attribute>
    <attribute name="homecoordy" class="java.lang.Double">4174499.566807919</attribute>
    <attribute name="housingtype" class="java.lang.String">House</attribute>
  </object>
  <object id="101597">
    <attribute name="homecoordx" class="java.lang.Double">547059.6420374016</attribute>
    <attribute name="homecoordy" class="java.lang.Double">4179668.320683784</attribute>
    <attribute name="housingtype" class="java.lang.String">House</attribute>
  </object>
  <object id="101800">
    <attribute name="homecoordx" class="java.lang.Double">546683.2125857059</attribute>
    <attribute name="homecoordy" class="java.lang.Double">4179647.0810107887</attribute>
    <attribute name="housingtype" class="java.lang.String">House</attribute>
  </object>
  <object id="101819">
    <attribute name="homecoordx" class="java.lang.Double">547153.8170000049</attribute>
    <attribute name="homecoordy" class="java.lang.Double">4179674.074459496</attribute>
    <attribute name="housingtype" class="java.lang.String">House</attribute>
  </object>
  <object id="101835">
    <attribute name="homecoordx" class="java.lang.Double">546683.2125857059</attribute>
    <attribute name="homecoordy" class="java.lang.Double">4179647.0810107887</attribute>
    <attribute name="housingtype" class="java.lang.String">House</attribute>
  </object>
  <object id="101843">
    <attribute name="homecoordx" class="java.lang.Double">547059.6420374016</attribute>
    <attribute name="homecoordy" class="java.lang.Double">4179668.320683784</attribute>
    <attribute name="housingtype" class="java.lang.String">House</attribute>
  </object>
  <object id="101929">
    <attribute name="homecoordx" class="java.lang.Double">547059.6420374016</attribute>
    <attribute name="homecoordy" class="java.lang.Double">4179668.320683784</attribute>
    <attribute name="housingtype" class="java.lang.String">House</attribute>
  </object>
  <object id="101965">
    <attribute name="homecoordx" class="java.lang.Double">546965.4085848271</attribute>
    <attribute name="homecoordy" class="java.lang.Double">4179664.29140638</attribute>
    <attribute name="housingtype" class="java.lang.String">House</attribute>
  </object>
  <object id="10200">
    <attribute name="homecoordx" class="java.lang.Double">548156.5597097117</attribute>
    <attribute name="homecoordy" class="java.lang.Double">4174399.492067408</attribute>
    <attribute name="housingtype" class="java.lang.String">House</attribute>
  </object>
  <object id="102071">
    <attribute name="homecoordx" class="java.lang.Double">553009.485904737</attribute>
    <attribute name="homecoordy" class="java.lang.Double">4179845.901452445</attribute>
    <attribute name="housingtype" class="java.lang.String">House</attribute>
  </object>
  <object id="1022505">
    <attribute name="homecoordx" class="java.lang.Double">601292.7706739513</attribute>
    <attribute name="homecoordy" class="java.lang.Double">4132994.280247437</attribute>
    <attribute name="housingtype" class="java.lang.String">House</attribute>
  </object>
  <object id="102312">
    <attribute name="homecoordx" class="java.lang.Double">553021.0174128877</attribute>
    <attribute name="homecoordy" class="java.lang.Double">4179704.7895470015</attribute>
    <attribute name="housingtype" class="java.lang.String">House</attribute>
  </object>
  <object id="102323">
    <attribute name="homecoordx" class="java.lang.Double">553105.6522533539</attribute>
    <attribute name="homecoordy" class="java.lang.Double">4179711.7158138272</attribute>
    <attribute name="housingtype" class="java.lang.String">House</attribute>
  </object>
  <object id="102346">
    <attribute name="homecoordx" class="java.lang.Double">553105.6522533539</attribute>
    <attribute name="homecoordy" class="java.lang.Double">4179711.7158138272</attribute>
    <attribute name="housingtype" class="java.lang.String">House</attribute>
  </object>
  <object id="102420">
    <attribute name="homecoordx" class="java.lang.Double">553021.0174128877</attribute>
    <attribute name="homecoordy" class="java.lang.Double">4179704.7895470015</attribute>
    <attribute name="housingtype" class="java.lang.String">House</attribute>
  </object>
  <object id="102421">
    <attribute name="homecoordx" class="java.lang.Double">553361.6840431732</attribute>
    <attribute name="homecoordy" class="java.lang.Double">4179732.5001093857</attribute>
    <attribute name="housingtype" class="java.lang.String">House</attribute>
  </object>
  <object id="102474">
    <attribute name="homecoordx" class="java.lang.Double">553105.6522533539</attribute>
    <attribute name="homecoordy" class="java.lang.Double">4179711.7158138272</attribute>
    <attribute name="housingtype" class="java.lang.String">House</attribute>
  </object>
  <object id="102487">
    <attribute name="homecoordx" class="java.lang.Double">553179.0636877065</attribute>
    <attribute name="homecoordy" class="java.lang.Double">4179859.758125968</attribute>
    <attribute name="housingtype" class="java.lang.String">House</attribute>
  </object>
  <object id="1025412">
    <attribute name="homecoordx" class="java.lang.Double">599333.8508454908</attribute>
    <attribute name="homecoordy" class="java.lang.Double">4133003.236642233</attribute>
    <attribute name="housingtype" class="java.lang.String">House</attribute>
  </object>
  <object id="102756">
    <attribute name="homecoordx" class="java.lang.Double">547342.4238498593</attribute>
    <attribute name="homecoordy" class="java.lang.Double">4179685.588689614</attribute>
    <attribute name="housingtype" class="java.lang.String">House</attribute>
  </object>
  <object id="102761">
    <attribute name="homecoordx" class="java.lang.Double">547342.4238498593</attribute>
    <attribute name="homecoordy" class="java.lang.Double">4179685.588689614</attribute>
    <attribute name="housingtype" class="java.lang.String">House</attribute>
  </object>
  <object id="102852">
    <attribute name="homecoordx" class="java.lang.Double">547435.4727970759</attribute>
    <attribute name="homecoordy" class="java.lang.Double">4179697.2035034215</attribute>
    <attribute name="housingtype" class="java.lang.String">House</attribute>
  </object>
  <object id="102854">
    <attribute name="homecoordx" class="java.lang.Double">547261.3425916728</attribute>
    <attribute name="homecoordy" class="java.lang.Double">4179473.5413513742</attribute>
    <attribute name="housingtype" class="java.lang.String">House</attribute>
  </object>
  <object id="102861">
    <attribute name="homecoordx" class="java.lang.Double">547261.3425916728</attribute>
    <attribute name="homecoordy" class="java.lang.Double">4179473.5413513742</attribute>
    <attribute name="housingtype" class="java.lang.String">House</attribute>
  </object>
  <object id="102868">
    <attribute name="homecoordx" class="java.lang.Double">547263.4477941692</attribute>
    <attribute name="homecoordy" class="java.lang.Double">4179286.202236512</attribute>
    <attribute name="housingtype" class="java.lang.String">House</attribute>
  </object>
  <object id="102881">
    <attribute name="homecoordx" class="java.lang.Double">547435.4727970759</attribute>
    <attribute name="homecoordy" class="java.lang.Double">4179697.2035034215</attribute>
    <attribute name="housingtype" class="java.lang.String">House</attribute>
  </object>
  <object id="102888">
    <attribute name="homecoordx" class="java.lang.Double">547263.4477941692</attribute>
    <attribute name="homecoordy" class="java.lang.Double">4179286.202236512</attribute>
    <attribute name="housingtype" class="java.lang.String">House</attribute>
  </object>
  <object id="102937">
    <attribute name="homecoordx" class="java.lang.Double">547263.4477941692</attribute>
    <attribute name="homecoordy" class="java.lang.Double">4179286.202236512</attribute>
    <attribute name="housingtype" class="java.lang.String">House</attribute>
  </object>
  <object id="102948">
    <attribute name="homecoordx" class="java.lang.Double">547248.735939895</attribute>
    <attribute name="homecoordy" class="java.lang.Double">4179679.875829696</attribute>
    <attribute name="housingtype" class="java.lang.String">House</attribute>
  </object>
  <object id="102956">
    <attribute name="homecoordx" class="java.lang.Double">547261.3425916728</attribute>
    <attribute name="homecoordy" class="java.lang.Double">4179473.5413513742</attribute>
    <attribute name="housingtype" class="java.lang.String">House</attribute>
  </object>
  <object id="102974">
    <attribute name="homecoordx" class="java.lang.Double">547435.4727970759</attribute>
    <attribute name="homecoordy" class="java.lang.Double">4179697.2035034215</attribute>
    <attribute name="housingtype" class="java.lang.String">House</attribute>
  </object>
  <object id="10306">
    <attribute name="homecoordx" class="java.lang.Double">547803.1935275298</attribute>
    <attribute name="homecoordy" class="java.lang.Double">4174648.872073958</attribute>
    <attribute name="housingtype" class="java.lang.String">House</attribute>
  </object>
  <object id="103101">
    <attribute name="homecoordx" class="java.lang.Double">543547.2595867581</attribute>
    <attribute name="homecoordy" class="java.lang.Double">4179662.34278085</attribute>
    <attribute name="housingtype" class="java.lang.String">House</attribute>
  </object>
  <object id="103123">
    <attribute name="homecoordx" class="java.lang.Double">543247.7584060411</attribute>
    <attribute name="homecoordy" class="java.lang.Double">4179644.890418802</attribute>
    <attribute name="housingtype" class="java.lang.String">House</attribute>
  </object>
  <object id="103222">
    <attribute name="homecoordx" class="java.lang.Double">543547.2595867581</attribute>
    <attribute name="homecoordy" class="java.lang.Double">4179662.34278085</attribute>
    <attribute name="housingtype" class="java.lang.String">House</attribute>
  </object>
  <object id="103332">
    <attribute name="homecoordx" class="java.lang.Double">543247.7584060411</attribute>
    <attribute name="homecoordy" class="java.lang.Double">4179644.890418802</attribute>
    <attribute name="housingtype" class="java.lang.String">House</attribute>
  </object>
  <object id="103339">
    <attribute name="homecoordx" class="java.lang.Double">543641.5759553002</attribute>
    <attribute name="homecoordy" class="java.lang.Double">4179668.083272689</attribute>
    <attribute name="housingtype" class="java.lang.String">House</attribute>
  </object>
  <object id="103539">
    <attribute name="homecoordx" class="java.lang.Double">543247.7584060411</attribute>
    <attribute name="homecoordy" class="java.lang.Double">4179644.890418802</attribute>
    <attribute name="housingtype" class="java.lang.String">House</attribute>
  </object>
  <object id="103541">
    <attribute name="homecoordx" class="java.lang.Double">543735.9864714354</attribute>
    <attribute name="homecoordy" class="java.lang.Double">4179673.9275699775</attribute>
    <attribute name="housingtype" class="java.lang.String">House</attribute>
  </object>
  <object id="103572">
    <attribute name="homecoordx" class="java.lang.Double">543735.9864714354</attribute>
    <attribute name="homecoordy" class="java.lang.Double">4179673.9275699775</attribute>
    <attribute name="housingtype" class="java.lang.String">House</attribute>
  </object>
  <object id="103575">
    <attribute name="homecoordx" class="java.lang.Double">543452.9607248582</attribute>
    <attribute name="homecoordy" class="java.lang.Double">4179656.512866876</attribute>
    <attribute name="housingtype" class="java.lang.String">House</attribute>
  </object>
  <object id="1036">
    <attribute name="homecoordx" class="java.lang.Double">547661.537289274</attribute>
    <attribute name="homecoordy" class="java.lang.Double">4173686.269584778</attribute>
    <attribute name="housingtype" class="java.lang.String">House</attribute>
  </object>
  <object id="10360">
    <attribute name="homecoordx" class="java.lang.Double">547519.2585582931</attribute>
    <attribute name="homecoordy" class="java.lang.Double">4174460.551426529</attribute>
    <attribute name="housingtype" class="java.lang.String">House</attribute>
  </object>
  <object id="1036113">
    <attribute name="homecoordx" class="java.lang.Double">598752.4674097998</attribute>
    <attribute name="homecoordy" class="java.lang.Double">4131646.8600628977</attribute>
    <attribute name="housingtype" class="java.lang.String">House</attribute>
  </object>
  <object id="103614">
    <attribute name="homecoordx" class="java.lang.Double">543735.9864714354</attribute>
    <attribute name="homecoordy" class="java.lang.Double">4179673.9275699775</attribute>
    <attribute name="housingtype" class="java.lang.String">House</attribute>
  </object>
  <object id="104055">
    <attribute name="homecoordx" class="java.lang.Double">549175.0679780074</attribute>
    <attribute name="homecoordy" class="java.lang.Double">4179598.6261237273</attribute>
    <attribute name="housingtype" class="java.lang.String">House</attribute>
  </object>
  <object id="104075">
    <attribute name="homecoordx" class="java.lang.Double">549057.5377293797</attribute>
    <attribute name="homecoordy" class="java.lang.Double">4179659.05651512</attribute>
    <attribute name="housingtype" class="java.lang.String">House</attribute>
  </object>
  <object id="104096">
    <attribute name="homecoordx" class="java.lang.Double">548959.9317616307</attribute>
    <attribute name="homecoordy" class="java.lang.Double">4179583.0632728767</attribute>
    <attribute name="housingtype" class="java.lang.String">House</attribute>
  </object>
  <object id="104117">
    <attribute name="homecoordx" class="java.lang.Double">549006.736316091</attribute>
    <attribute name="homecoordy" class="java.lang.Double">4179824.22708335</attribute>
    <attribute name="housingtype" class="java.lang.String">House</attribute>
  </object>
  <object id="104222">
    <attribute name="homecoordx" class="java.lang.Double">544113.6239383662</attribute>
    <attribute name="homecoordy" class="java.lang.Double">4179696.793317896</attribute>
    <attribute name="housingtype" class="java.lang.String">House</attribute>
  </object>
  <object id="104255">
    <attribute name="homecoordx" class="java.lang.Double">544019.2511236214</attribute>
    <attribute name="homecoordy" class="java.lang.Double">4179691.181024704</attribute>
    <attribute name="housingtype" class="java.lang.String">House</attribute>
  </object>
  <object id="104371">
    <attribute name="homecoordx" class="java.lang.Double">543831.0359881443</attribute>
    <attribute name="homecoordy" class="java.lang.Double">4179679.881775961</attribute>
    <attribute name="housingtype" class="java.lang.String">House</attribute>
  </object>
  <object id="104438">
    <attribute name="homecoordx" class="java.lang.Double">544113.6239383662</attribute>
    <attribute name="homecoordy" class="java.lang.Double">4179696.793317896</attribute>
    <attribute name="housingtype" class="java.lang.String">House</attribute>
  </object>
  <object id="104548">
    <attribute name="homecoordx" class="java.lang.Double">543924.9356711379</attribute>
    <attribute name="homecoordy" class="java.lang.Double">4179685.543330291</attribute>
    <attribute name="housingtype" class="java.lang.String">House</attribute>
  </object>
  <object id="104551">
    <attribute name="homecoordx" class="java.lang.Double">543831.0359881443</attribute>
    <attribute name="homecoordy" class="java.lang.Double">4179679.881775961</attribute>
    <attribute name="housingtype" class="java.lang.String">House</attribute>
  </object>
  <object id="104597">
    <attribute name="homecoordx" class="java.lang.Double">543924.9356711379</attribute>
    <attribute name="homecoordy" class="java.lang.Double">4179685.543330291</attribute>
    <attribute name="housingtype" class="java.lang.String">House</attribute>
  </object>
  <object id="104612">
    <attribute name="homecoordx" class="java.lang.Double">543924.9356711379</attribute>
    <attribute name="homecoordy" class="java.lang.Double">4179685.543330291</attribute>
    <attribute name="housingtype" class="java.lang.String">House</attribute>
  </object>
  <object id="104617">
    <attribute name="homecoordx" class="java.lang.Double">544208.0198465833</attribute>
    <attribute name="homecoordy" class="java.lang.Double">4179702.5442782175</attribute>
    <attribute name="housingtype" class="java.lang.String">House</attribute>
  </object>
  <object id="104633">
    <attribute name="homecoordx" class="java.lang.Double">544322.7871548048</attribute>
    <attribute name="homecoordy" class="java.lang.Double">4179709.623542545</attribute>
    <attribute name="housingtype" class="java.lang.String">House</attribute>
  </object>
  <object id="104777">
    <attribute name="homecoordx" class="java.lang.Double">544468.0617161395</attribute>
    <attribute name="homecoordy" class="java.lang.Double">4179718.427891191</attribute>
    <attribute name="housingtype" class="java.lang.String">House</attribute>
  </object>
  <object id="10478">
    <attribute name="homecoordx" class="java.lang.Double">547467.0624635457</attribute>
    <attribute name="homecoordy" class="java.lang.Double">4174553.6321644895</attribute>
    <attribute name="housingtype" class="java.lang.String">House</attribute>
  </object>
  <object id="104796">
    <attribute name="homecoordx" class="java.lang.Double">544597.9801132755</attribute>
    <attribute name="homecoordy" class="java.lang.Double">4179518.4157521008</attribute>
    <attribute name="housingtype" class="java.lang.String">House</attribute>
  </object>
  <object id="104800">
    <attribute name="homecoordx" class="java.lang.Double">544480.5756607767</attribute>
    <attribute name="homecoordy" class="java.lang.Double">4179511.286035946</attribute>
    <attribute name="housingtype" class="java.lang.String">House</attribute>
  </object>
  <object id="104802">
    <attribute name="homecoordx" class="java.lang.Double">544597.9801132755</attribute>
    <attribute name="homecoordy" class="java.lang.Double">4179518.4157521008</attribute>
    <attribute name="housingtype" class="java.lang.String">House</attribute>
  </object>
  <object id="104893">
    <attribute name="homecoordx" class="java.lang.Double">544480.5756607767</attribute>
    <attribute name="homecoordy" class="java.lang.Double">4179511.286035946</attribute>
    <attribute name="housingtype" class="java.lang.String">House</attribute>
  </object>
  <object id="1049392">
    <attribute name="homecoordx" class="java.lang.Double">600917.9400030627</attribute>
    <attribute name="homecoordy" class="java.lang.Double">4126172.814231496</attribute>
    <attribute name="housingtype" class="java.lang.String">House</attribute>
  </object>
  <object id="1050667">
    <attribute name="homecoordx" class="java.lang.Double">600748.2510039436</attribute>
    <attribute name="homecoordy" class="java.lang.Double">4128515.80321808</attribute>
    <attribute name="housingtype" class="java.lang.String">House</attribute>
  </object>
  <object id="105090">
    <attribute name="homecoordx" class="java.lang.Double">544774.1479862443</attribute>
    <attribute name="homecoordy" class="java.lang.Double">4179737.232168543</attribute>
    <attribute name="housingtype" class="java.lang.String">House</attribute>
  </object>
  <object id="105128">
    <attribute name="homecoordx" class="java.lang.Double">545151.58722123</attribute>
    <attribute name="homecoordy" class="java.lang.Double">4179760.198521313</attribute>
    <attribute name="housingtype" class="java.lang.String">House</attribute>
  </object>
  <object id="10515">
    <attribute name="homecoordx" class="java.lang.Double">547803.1935275298</attribute>
    <attribute name="homecoordy" class="java.lang.Double">4174648.872073958</attribute>
    <attribute name="housingtype" class="java.lang.String">House</attribute>
  </object>
  <object id="105168">
    <attribute name="homecoordx" class="java.lang.Double">545057.3370853413</attribute>
    <attribute name="homecoordy" class="java.lang.Double">4179754.6906283256</attribute>
    <attribute name="housingtype" class="java.lang.String">House</attribute>
  </object>
  <object id="105176">
    <attribute name="homecoordx" class="java.lang.Double">545151.58722123</attribute>
    <attribute name="homecoordy" class="java.lang.Double">4179760.198521313</attribute>
    <attribute name="housingtype" class="java.lang.String">House</attribute>
  </object>
  <object id="105178">
    <attribute name="homecoordx" class="java.lang.Double">544774.1479862443</attribute>
    <attribute name="homecoordy" class="java.lang.Double">4179737.232168543</attribute>
    <attribute name="housingtype" class="java.lang.String">House</attribute>
  </object>
  <object id="105180">
    <attribute name="homecoordx" class="java.lang.Double">544868.4510656274</attribute>
    <attribute name="homecoordy" class="java.lang.Double">4179743.179138202</attribute>
    <attribute name="housingtype" class="java.lang.String">House</attribute>
  </object>
  <object id="105193">
    <attribute name="homecoordx" class="java.lang.Double">544868.4510656274</attribute>
    <attribute name="homecoordy" class="java.lang.Double">4179743.179138202</attribute>
    <attribute name="housingtype" class="java.lang.String">House</attribute>
  </object>
  <object id="105231">
    <attribute name="homecoordx" class="java.lang.Double">544680.2775379567</attribute>
    <attribute name="homecoordy" class="java.lang.Double">4179731.358428421</attribute>
    <attribute name="housingtype" class="java.lang.String">House</attribute>
  </object>
  <object id="105243">
    <attribute name="homecoordx" class="java.lang.Double">545151.58722123</attribute>
    <attribute name="homecoordy" class="java.lang.Double">4179760.198521313</attribute>
    <attribute name="housingtype" class="java.lang.String">House</attribute>
  </object>
  <object id="10525">
    <attribute name="homecoordx" class="java.lang.Double">547803.1935275298</attribute>
    <attribute name="homecoordy" class="java.lang.Double">4174648.872073958</attribute>
    <attribute name="housingtype" class="java.lang.String">House</attribute>
  </object>
  <object id="10552">
    <attribute name="homecoordx" class="java.lang.Double">547803.1935275298</attribute>